Version 4
SHEET 1 1716 680
WIRE 1376 -96 1312 -96
WIRE 1440 -96 1376 -96
WIRE 1312 -32 1312 -96
WIRE 1440 -32 1440 -96
WIRE -592 -16 -624 -16
WIRE -480 -16 -512 -16
WIRE -272 -16 -400 -16
WIRE -160 -16 -192 -16
WIRE 0 -16 -160 -16
WIRE 128 0 64 0
WIRE 0 16 -80 16
WIRE 416 16 368 16
WIRE 560 16 496 16
WIRE 1200 16 1088 16
WIRE -80 96 -80 16
WIRE 0 96 -80 96
WIRE 128 96 128 0
WIRE 128 96 80 96
WIRE -80 112 -80 96
WIRE 128 112 128 96
WIRE 240 112 128 112
WIRE 368 112 368 16
WIRE 368 112 320 112
WIRE 416 112 368 112
WIRE 560 128 560 16
WIRE 560 128 480 128
WIRE 736 128 560 128
WIRE 848 128 816 128
WIRE 944 128 848 128
WIRE 1088 128 1088 16
WIRE 1088 128 1008 128
WIRE 416 144 384 144
WIRE 224 192 128 192
WIRE 384 192 384 144
WIRE 384 192 304 192
WIRE 1200 192 1088 192
WIRE -80 208 -80 192
WIRE -16 208 -80 208
WIRE 128 208 128 192
WIRE 128 208 64 208
WIRE 1200 256 1136 256
WIRE -80 288 -80 208
WIRE 0 288 -80 288
WIRE 128 304 128 208
WIRE 128 304 64 304
WIRE -592 320 -624 320
WIRE -272 320 -512 320
WIRE -160 320 -192 320
WIRE 0 320 -160 320
WIRE 32 352 32 336
WIRE 1088 368 1088 192
WIRE 1088 368 992 368
WIRE 1136 384 1136 256
FLAG 384 272 0
FLAG 384 448 0
FLAG 464 448 0
FLAG 384 368 Vcc
FLAG 32 32 Vcc
FLAG 32 272 Vcc
FLAG 448 96 Vcc
FLAG 464 368 Vee
FLAG 32 -32 Vee
FLAG 32 352 Vee
FLAG 448 160 Vee
FLAG -160 -80 0
FLAG -704 -16 0
FLAG -160 384 0
FLAG -704 320 0
FLAG 848 192 0
FLAG 1088 128 Vout
FLAG 1008 208 0
FLAG 1008 48 Vcc
FLAG 1376 -176 0
FLAG 1376 304 0
FLAG 1136 464 0
FLAG 992 448 0
FLAG 1120 64 0
FLAG 1552 128 Digital_Data
SYMBOL OpAmps\\AD8674 32 240 R0
SYMATTR InstName U1
SYMBOL OpAmps\\AD8674 32 64 M180
SYMATTR InstName U2
SYMBOL OpAmps\\AD8674 448 64 R0
SYMATTR InstName U3
SYMBOL res -96 96 R0
SYMATTR InstName R1
SYMATTR Value 1k
SYMBOL res 96 80 R90
WINDOW 0 -2 14 VBottom 2
WINDOW 3 32 56 VTop 2
SYMATTR InstName R2
SYMATTR Value 39.5k
SYMBOL res 336 96 R90
WINDOW 0 0 56 VBottom 2
WINDOW 3 32 56 VTop 2
SYMATTR InstName R3
SYMATTR Value 1k
SYMBOL res 512 0 R90
WINDOW 0 0 56 VBottom 2
WINDOW 3 32 56 VTop 2
SYMATTR InstName R4
SYMATTR Value 1k
SYMBOL res 80 192 R90
WINDOW 0 0 56 VBottom 2
WINDOW 3 24 92 VTop 2
SYMATTR InstName R5
SYMATTR Value 39.5k
SYMBOL res 320 176 R90
WINDOW 0 0 56 VBottom 2
WINDOW 3 32 56 VTop 2
SYMATTR InstName R6
SYMATTR Value 1k
SYMBOL res 400 288 R180
WINDOW 0 36 76 Left 2
WINDOW 3 36 40 Left 2
SYMATTR InstName R7
SYMATTR Value 1k
SYMBOL voltage 384 352 R0
WINDOW 123 0 0 Left 0
WINDOW 39 0 0 Left 0
SYMATTR InstName V1
SYMATTR Value 15
SYMBOL voltage 464 352 R0
WINDOW 123 0 0 Left 0
WINDOW 39 0 0 Left 0
SYMATTR InstName V2
SYMATTR Value -15
SYMBOL res -176 -32 R90
WINDOW 0 0 56 VBottom 2
WINDOW 3 32 56 VTop 2
SYMATTR InstName R8
SYMATTR Value 1k
SYMBOL cap -176 -80 R0
SYMATTR InstName C1
SYMATTR Value 16”
SYMBOL bv -608 -16 R90
WINDOW 0 -32 56 VBottom 2
WINDOW 3 -101 49 VTop 2
SYMATTR InstName B1
SYMATTR Value V = white(1e6*time) * 5m
SYMBOL voltage -496 -16 R90
WINDOW 0 -32 56 VBottom 2
WINDOW 3 32 56 VTop 2
WINDOW 123 0 0 Left 0
WINDOW 39 0 0 Left 0
SYMATTR InstName V3
SYMATTR Value SINE(0 2.5m 50)
SYMBOL voltage -384 -16 R90
WINDOW 0 -32 56 VBottom 2
WINDOW 3 68 51 VTop 2
WINDOW 123 -4 56 VBottom 2
WINDOW 39 0 0 Left 0
SYMATTR InstName V4
SYMATTR Value ""
SYMATTR Value2 AC 1
SYMBOL res -176 304 R90
WINDOW 0 0 56 VBottom 2
WINDOW 3 32 56 VTop 2
SYMATTR InstName R9
SYMATTR Value 1k
SYMBOL cap -176 320 R0
SYMATTR InstName C2
SYMATTR Value 16”
SYMBOL bv -608 320 R90
WINDOW 0 -32 56 VBottom 2
WINDOW 3 -101 49 VTop 2
SYMATTR InstName B2
SYMATTR Value V = white(1e6*time) * 5m
SYMBOL voltage -496 320 R90
WINDOW 0 -32 56 VBottom 2
WINDOW 3 32 56 VTop 2
WINDOW 123 0 0 Left 0
WINDOW 39 0 0 Left 0
SYMATTR InstName V5
SYMATTR Value SINE(0 2.5m 50)
SYMBOL res 832 112 R90
WINDOW 0 0 56 VBottom 2
WINDOW 3 32 56 VTop 2
SYMATTR InstName R10
SYMATTR Value 1k
SYMBOL cap 832 128 R0
SYMATTR InstName C3
SYMATTR Value 16”
SYMBOL cap 1008 112 R90
WINDOW 0 0 32 VBottom 2
WINDOW 3 32 32 VTop 2
SYMATTR InstName C4
SYMATTR Value 16”
SYMBOL res 992 32 R0
SYMATTR InstName R11
SYMATTR Value 13k
SYMBOL res 992 112 R0
SYMATTR InstName R12
SYMATTR Value 2k
SYMBOL ADC\\LTC2323-12 1376 128 R0
SYMATTR InstName U4
SYMBOL voltage 1376 -80 R180
WINDOW 0 24 96 Left 2
WINDOW 3 24 16 Left 2
WINDOW 123 0 0 Left 0
WINDOW 39 0 0 Left 0
SYMATTR InstName V6
SYMATTR Value 5
SYMBOL voltage 1136 368 R0
WINDOW 123 0 0 Left 0
WINDOW 39 0 0 Left 0
SYMATTR InstName V7
SYMATTR Value PULSE(0 5 0 1n 1n 0.5u 1u)
SYMBOL voltage 992 352 R0
WINDOW 3 -131 138 Left 2
WINDOW 123 0 0 Left 0
WINDOW 39 0 0 Left 0
SYMATTR InstName V8
SYMATTR Value PULSE(0 5 0 1n 1n 5u 100u)
SYMBOL voltage 1216 64 R90
WINDOW 0 -32 56 VBottom 2
WINDOW 3 32 56 VTop 2
WINDOW 123 0 0 Left 0
WINDOW 39 0 0 Left 0
SYMATTR InstName V9
SYMATTR Value 2.5
TEXT -624 472 Left 2 !.tran 0 0.4 0
TEXT -640 528 Left 2 !;ac dec 100 10k 1
TEXT -336 488 Left 2 !.meas AC max_gain max mag(V(Vout))\n.meas AC fcut_high when mag(V(Vout))=max_gain/sqrt(2) FALL=1
