Version 4
SHEET 1 880 680
WIRE 48 -160 -112 -160
WIRE 176 -144 112 -144
WIRE 48 -128 -32 -128
WIRE 464 -128 416 -128
WIRE 608 -128 544 -128
WIRE -112 -48 -112 -160
WIRE -32 -48 -32 -128
WIRE 48 -48 -32 -48
WIRE 176 -48 176 -144
WIRE 176 -48 128 -48
WIRE -32 -32 -32 -48
WIRE 176 -32 176 -48
WIRE 288 -32 176 -32
WIRE 416 -32 416 -128
WIRE 416 -32 368 -32
WIRE 464 -32 416 -32
WIRE 608 -16 608 -128
WIRE 608 -16 528 -16
WIRE 672 -16 608 -16
WIRE 464 0 432 0
WIRE 272 48 176 48
WIRE 432 48 432 0
WIRE 432 48 352 48
WIRE -32 64 -32 48
WIRE 32 64 -32 64
WIRE 176 64 176 48
WIRE 176 64 112 64
WIRE -32 144 -32 64
WIRE 48 144 -32 144
WIRE 176 160 176 64
WIRE 176 160 112 160
WIRE -112 176 -112 32
WIRE 48 176 -112 176
WIRE 80 240 80 192
FLAG 432 128 0
FLAG -416 64 0
FLAG -336 64 0
FLAG -416 -16 Vcc
FLAG 80 -112 Vcc
FLAG 80 128 Vcc
FLAG 496 -48 Vcc
FLAG -336 -16 Vee
FLAG 80 -176 Vee
FLAG 80 240 Vee
FLAG 496 16 Vee
FLAG -112 176 0
FLAG 672 -16 Vout
SYMBOL OpAmps\\AD8674 80 96 R0
SYMATTR InstName U1
SYMBOL OpAmps\\AD8674 80 -80 M180
SYMATTR InstName U2
SYMBOL OpAmps\\AD8674 496 -80 R0
SYMATTR InstName U3
SYMBOL res -48 -48 R0
SYMATTR InstName R1
SYMATTR Value 1k
SYMBOL res 144 -64 R90
WINDOW 0 -2 14 VBottom 2
WINDOW 3 32 56 VTop 2
SYMATTR InstName R2
SYMATTR Value 39.5k
SYMBOL res 384 -48 R90
WINDOW 0 0 56 VBottom 2
WINDOW 3 32 56 VTop 2
SYMATTR InstName R3
SYMATTR Value 1k
SYMBOL res 560 -144 R90
WINDOW 0 0 56 VBottom 2
WINDOW 3 32 56 VTop 2
SYMATTR InstName R4
SYMATTR Value 1k
SYMBOL res 128 48 R90
WINDOW 0 0 56 VBottom 2
WINDOW 3 24 92 VTop 2
SYMATTR InstName R2*
SYMATTR Value 39.5k
SYMBOL res 368 32 R90
WINDOW 0 0 56 VBottom 2
WINDOW 3 32 56 VTop 2
SYMATTR InstName R3*
SYMATTR Value 1k
SYMBOL res 448 144 R180
WINDOW 0 36 76 Left 2
WINDOW 3 36 40 Left 2
SYMATTR InstName R4*
SYMATTR Value 1k
SYMBOL voltage -112 -64 R0
WINDOW 3 -118 122 Left 2
WINDOW 123 0 0 Left 0
WINDOW 39 0 0 Left 0
SYMATTR InstName V1
SYMATTR Value SINE(0 25m 7)
SYMBOL voltage -416 -32 R0
WINDOW 123 0 0 Left 0
WINDOW 39 0 0 Left 0
SYMATTR InstName V2
SYMATTR Value 15
SYMBOL voltage -336 -32 R0
WINDOW 123 0 0 Left 0
WINDOW 39 0 0 Left 0
SYMATTR InstName V3
SYMATTR Value -15
TEXT -434 138 Left 2 !.tran 0 1 0
